@<TRIPOS>MOLECULE
*****
 3 2 0 0 0
SMALL
GASTEIGER

@<TRIPOS>ATOM
      1 O           0.0021    0.3978    0.0000 O.3     1  HOH1       -0.4105
      2 H          -0.7645   -0.1948    0.0000 H       0  HOH0        0.2052
      3 H           0.7624   -0.2030    0.0000 H       0  HOH0        0.2052
@<TRIPOS>BOND
     1     1     2    1
     2     1     3    1
